Version 4
SHEET 1 1148 804
WIRE 176 -224 -160 -224
WIRE -160 -160 -160 -224
WIRE 176 -48 176 -224
WIRE -160 -16 -160 -80
WIRE 176 64 176 32
WIRE 384 64 176 64
WIRE 176 96 176 64
WIRE -80 144 -224 144
WIRE 112 144 0 144
WIRE -224 176 -224 144
WIRE -224 304 -224 256
WIRE 176 432 176 192
FLAG -160 -16 0
FLAG -224 304 0
FLAG 176 432 0
SYMBOL npn 112 96 R0
SYMATTR InstName Q1
SYMATTR Value 2N2222
SYMBOL res 160 -64 R0
SYMATTR InstName R1
SYMATTR Value 2.2k
SYMBOL voltage -160 -176 R0
WINDOW 123 0 0 Left 0
WINDOW 39 0 0 Left 0
SYMATTR InstName V3
SYMATTR Value 15
SYMBOL voltage -224 160 R0
WINDOW 3 24 152 Left 2
WINDOW 123 24 124 Left 2
WINDOW 39 0 0 Left 0
SYMATTR InstName V1
SYMATTR Value 1
SYMATTR Value2 AC 1
SYMBOL res 16 128 R90
WINDOW 0 0 56 VBottom 2
WINDOW 3 32 56 VTop 2
SYMATTR InstName R2
SYMATTR Value 10k
TEXT 504 72 Left 2 !;ac dec 100 1 2meg
TEXT 544 -128 Left 2 !.tran 10m
TEXT 848 72 Left 2 !.step param Y 1 10 .5
