Version 4
SHEET 1 880 680
WIRE 176 -224 -32 -224
WIRE -32 -160 -32 -224
WIRE 176 -48 176 -224
WIRE -32 0 -32 -80
WIRE 176 64 176 32
WIRE 384 64 176 64
WIRE 176 96 176 64
WIRE 0 144 -32 144
WIRE 112 144 80 144
WIRE 176 272 176 192
WIRE -32 288 -32 224
FLAG -32 0 0
FLAG 176 272 0
FLAG -32 288 0
SYMBOL npn 112 96 R0
SYMATTR InstName Q1
SYMATTR Value 2N2222
SYMBOL res 160 -64 R0
SYMATTR InstName R1
SYMATTR Value 200
SYMBOL voltage -32 128 R0
WINDOW 3 24 152 Left 2
WINDOW 123 24 124 Left 2
WINDOW 39 0 0 Left 0
SYMATTR InstName V1
SYMATTR Value 1
SYMATTR Value2 AC 1
SYMBOL voltage -32 -176 R0
WINDOW 123 0 0 Left 0
WINDOW 39 0 0 Left 0
SYMATTR InstName V3
SYMATTR Value 10
SYMBOL res 96 128 R90
WINDOW 0 0 56 VBottom 2
WINDOW 3 32 56 VTop 2
SYMATTR InstName R2
SYMATTR Value 1k
TEXT 408 -144 Left 2 !.ac dec 100 10 1meg
TEXT 400 -48 Left 2 !.step param X 1 10 0.5
